<?xml version="1.0" encoding="UTF-8"?>

<!-- generated on 2023-12-23 18:57:26 by Eclipse SUMO sumo Version 1.19.0
<configuration xmlns:xsi="http://www.w3.org/2001/XMLSchema-instance" xsi:noNamespaceSchemaLocation="http://sumo.dlr.de/xsd/sumoConfiguration.xsd">

    <input>
        <net-file value="straight_highway_network.net.xml"/>
    </input>

    <output>
        <statistic-output value="output_tripinfo.xml"/>
    </output>

    <time>
        <begin value="0"/>
        <end value="60"/>
    </time>

    <report>
        <duration-log.statistics value="true"/>
    </report>

    <gui_only>
        <gui-settings-file value="gui_settings.xml"/>
    </gui_only>

</configuration>
-->

<statistics xmlns:xsi="http://www.w3.org/2001/XMLSchema-instance" xsi:noNamespaceSchemaLocation="http://sumo.dlr.de/xsd/statistic_file.xsd">
    <performance clockBegin="1703368646.11" clockEnd="1703368646.11" clockDuration="0.00" traciDuration="0.00" realTimeFactor="-1.00" vehicleUpdatesPerSecond="-1.00" personUpdatesPerSecond="-1.00" begin="0.00" end="60.00" duration="60.00"/>
    <vehicles loaded="0" inserted="0" running="0" waiting="0"/>
    <teleports total="0" jam="0" yield="0" wrongLane="0"/>
    <safety collisions="0" emergencyStops="0" emergencyBraking="0"/>
    <persons loaded="0" running="0" jammed="0"/>
    <personTeleports total="0" abortWait="0" wrongDest="0"/>
    <vehicleTripStatistics count="0" routeLength="0.00" speed="0.00" duration="0.00" waitingTime="0.00" timeLoss="0.00" departDelay="0.00" departDelayWaiting="-1.00" totalTravelTime="0.00" totalDepartDelay="0.00"/>
    <pedestrianStatistics number="0" routeLength="0.00" duration="0.00" timeLoss="0.00"/>
    <rideStatistics number="0"/>
    <transportStatistics number="0"/>
</statistics>
